data_La2Mo2O9
_symmetry_space_group_name_H-M   'P 1'
_cell_length_a   7.15470000
_cell_length_b   7.15470000
_cell_length_c   7.15470000
_cell_angle_alpha   90.00000000
_cell_angle_beta   90.00000000
_cell_angle_gamma   90.00000000
_symmetry_Int_Tables_number   1
_chemical_formula_structural   La2Mo2O9
_chemical_formula_sum   'La4 Mo4 O18'
_cell_volume   366.24717618
_cell_formula_units_Z   2
loop_
 _symmetry_equiv_pos_site_id
 _symmetry_equiv_pos_as_xyz
  1  'x, y, z'
loop_
 _atom_site_type_symbol
 _atom_site_label
 _atom_site_symmetry_multiplicity
 _atom_site_fract_x
 _atom_site_fract_y
 _atom_site_fract_z
 _atom_site_occupancy
  La  La0  1  0.85290000  0.85290000  0.85290000  1
  La  La1  1  0.35290000  0.64710000  0.14710000  1
  La  La2  1  0.14710000  0.35290000  0.64710000  1
  La  La3  1  0.64710000  0.14710000  0.35290000  1
  Mo  Mo4  1  0.16950000  0.16950000  0.16950000  1
  Mo  Mo5  1  0.66950000  0.33050000  0.83050000  1
  Mo  Mo6  1  0.83050000  0.66950000  0.33050000  1
  Mo  Mo7  1  0.33050000  0.83050000  0.66950000  1
  O  O8  1  0.31640000  0.31640000  0.31640000  1
  O  O9  1  0.81640000  0.18360000  0.68360000  1
  O  O10  1  0.68360000  0.81640000  0.18360000  1
  O  O11  1  0.18360000  0.68360000  0.81640000  1
  O  O12  1  0.99290000  0.18200000  0.33600000  1
  O  O13  1  0.49290000  0.31800000  0.66400000  1
  O  O14  1  0.00710000  0.68200000  0.16400000  1
  O  O15  1  0.50710000  0.81800000  0.83600000  1
  O  O16  1  0.33600000  0.99290000  0.18200000  1
  O  O17  1  0.16400000  0.00710000  0.68200000  1
  O  O18  1  0.83600000  0.50710000  0.81800000  1
  O  O19  1  0.66400000  0.49290000  0.31800000  1
  O  O20  1  0.18200000  0.33600000  0.99290000  1
  O  O21'  1  0.91100000  0.64200000  0.55100000  1
  O  O22'  1  0.41100000  0.85800000  0.44900000  1
  O  O23  1  0.68200000  0.16400000  0.00710000  1
  O  O24  1  0.02500000  0.02500000  0.02500000  1
  O  O25  1  0.52500000  0.47500000  0.97500000  1


